-----BEGIN RSA PRIVATE KEY-----
MIIEowIBAAKCAQEAwE85R8Tp73o+ikAzYYxbrvXHEol5Cu9Col7lUdti4Z28DIgd
K1HkvAY8jmW0SQqxvAZ2ksSpZoZkw/TDRjdr2mY+xADiSKb+kFuvUrxzTMoQHwZP
tpYnKa3eIonAoVVAVQnTS+VUYPeESPxeXBf7A6M9zNopoPkyjfdlU8bSorK/JbIK
jAMRZtACwhnOj7PA77NjRh5z/MT3DoB5yXXUHGOxSW54nE9n6F4f6lixW7e4gePm
kgFRvXIVgSml3xrZapcnh1ZMZcAetbiJS0vU29qWX6xjWZ7KDwJ/5ThiYEW0406W
BstXUMS2jyotshH0bG41pWXrSNbGs9se5y8ymwIDAQABAoIBABa1hEMYWrOf0ODM
ggTD6VO4zEBBIZ0L8edwo03ORVf1I26raB5kdklJxz7dfbOeYqycasYcGRD1T9Lg
BWs2QjMxHbpRjGcd6TOs0ABKJqdruQmg2irqgkdms7OKZsfmZElmdqAgvZ0RvXpM
6uufHVIppbOaE45hvvmKvFlvQhJaKtWkARdgeh0ZtcxkiEduKmc+a9Rpnq36SPpY
sgK/3hHSeB1dex9TViPLbL93Nl7dhk6uHRa4U7LCW+Q2XTuJHbYBEofGX5bl1nrK
c9bOFhHvTtptoSBVay9E5CA1TzoE7Mebg9Rm6ssdaBKjQBy8BMr6jgCQeM4LS03C
AD67c/ECgYEA4UATEnA0XhHU3GwUd8TW5ELKfKZQxsjc6708ASCXgTxVEV5uZcaF
W0F2b3LgGIUV5kUBHRTjjv+twZvJwu79W7ZenJ3AALn2JPwCx9g5pNweU78LY6Gs
Jj1Yd7ma8bqEQOTe2ApSDx3VnmtPUWKtD4qKzJKO/xoKObBVRrBoROMCgYEA2o/z
ftPf2jbJGrBQ75YnIV4OA2icyE7VhXVEuWGFR83QCni5mUaCDb0/dq5RVmE0Usbg
4EkrC3JPs7Ui+RI9zR+JeELFljj9bys9dXVBufi+QITkfsbqJ4z9PwMthMgnLaZe
sR8ETrbp1Bg7wgM9z2GHjNQKHfMv4E40opF9gOkCgYBPv6LA/W7c+000uSNKACvg
5vDPzwZ8SrNE11u+Pm7Fd7nai2dkqzOdyoCHFtHWfI/zVez+Ad5LS6SWDnURihGz
fc7jfkpzN2O5VmwZmylVgAVQuyvqG1xasY933APKn7GhVCa9sHG7HmH6U53if6As
B2363cy47tw97ntSqrRP5wKBgQCNvDRn1vagCE86I4UZGgKePORRiZHCxHzrYzUC
Ex/fhLSZVdjmcTb9ufBiAoF0xuyrkZVbXZewgJz3KUxYwV+amg0IFCUWWjbf1Oay
OSw6cfjO1l9nZ4+JvoCsUF9AcJwXmoBl1HtyoGPayyxVkMyQo+rHhOpaqc4uZAj2
M+tzoQKBgGPXyAYpahO0mMeBulMXoD/h/eIiqp+qP54j7Ihc6p4EAeGsDnE8slZM
+jjunB7gMZLr+PEtXO68AfEncdz83YoZs2OS2OCRblXE2GkOK3Nd5NwDTBn2ALrW
2+1Koi9iEZK3aN1pedUCY+O67VCUlUP0dFqiNsk9Pb2YNNeWVmTU
-----END RSA PRIVATE KEY-----
